/*--------------------------------*- C++ -*----------------------------------*\
| =========                 |                                                 |
| \\      /  F ield         | OpenFOAM: The Open Source CFD Toolbox           |
|  \\    /   O peration     | Version:  2412                                  |
|   \\  /    A nd           | Website:  www.openfoam.com                      |
|    \\/     M anipulation  |                                                 |
\*---------------------------------------------------------------------------*/
FoamFile
{
    version     2.0;
    format      ascii;
    arch        "LSB;label=32;scalar=64";
    class       polyBoundaryMesh;
    location    "constant/polyMesh";
    object      boundary;
}
// * * * * * * * * * * * * * * * * * * * * * * * * * * * * * * * * * * * * * //

3
(
    Inlet
    {
        type            cyclic;
        inGroups        1(cyclic);
        nFaces          3125;
        startFace       2328125;
        matchTolerance  0.0001;
        transform       unknown;
        neighbourPatch  Outlet;
    }
    Outlet
    {
        type            cyclic;
        inGroups        1(cyclic);
        nFaces          3125;
        startFace       2331250;
        matchTolerance  0.0001;
        transform       unknown;
        neighbourPatch  Inlet;
    }
    Walls
    {
        type            wall;
        inGroups        1(wall);
        nFaces          25000;
        startFace       2334375;
    }
)

// ************************************************************************* //
